[General]
network = AerocomSys
repeat = 1
#seed-set = ${repetition}
num-rngs = 3
**.size = 100
**.minCapacity = 6000
**.maxCapacity = 15000
sim-time-limit = 1000s
#warmup-period = 10s
rng-class = omnetpp::cMersenneTwister
**.nDL = 5
**.nAC = 1
# generation time
**.PacketGenerator.rng-0 = 0
# selection of the DL in the non-monitoring time
**.LinkSelector.rng-1 = 1
# distribution of t
**.DataLink[*].rng-0 = 0

[Config non-monitoring-exponential]
description = "aircraft in non-monitoring mode, new capacity selected with exponential distrbution"
**.k = 0.5
**.exponentialMean = 1
**.generationMode = 1
**.operationMode = 1

[Config non-monitoring-lognormal]
description = "aircraft in non-monitoring mode, new capacity selected with lognormal distrbution"
**.k = 0.5
**.lognormalMean = 1
**.lognormalStdev = 1
**.generationMode = 0
**.operationMode = 1

[Config monitoring-exponential]
description = "aircraft in monitoring mode, new capacity selected with exponential distrbution"
**.k = ${0.002, 0.005, 0.008, 0.010}
**.X = 0.0005
**.m = 1
**.exponentialMean = 1
**.generationMode = 1
**.operationMode = 0

[Config monitoring-lognormal]
description = "aircraft in monitoring mode, new capacity selected with lognormal distrbution"
**.k = 0.5
**.X = 0.05
**.m = 1
**.lognormalMean = 1
**.lognormalStdev = 1
**.generationMode = 0
**.operationMode = 0

